LTspice 24.1.0 for Windows
Circuit: C:\Users\fgewi\Documents\Projects\Discrete-Opamp\Simulations\v1\discrete_opamp_v1.net
Start Time: Sat Jan 25 00:05:36 2025
solver = Normal
Maximum thread count: 12
tnom = 27
temp = 27
method = trap
.step 
Total elapsed time: 0.043 seconds.

Files loaded:
C:\Users\fgewi\Documents\Projects\Discrete-Opamp\Simulations\v1\discrete_opamp_v1.net
C:\Users\fgewi\AppData\Local\LTspice\lib\cmp\standard.bjt

